
Ketcher 04292215592D 1   1.00000     0.00000     0

 19 18  0     1  0            999 V2000
    8.7876   -9.4323    0.0000 C   0  0  0  0  0  0  0  0  0  0  0  0
    8.7876  -10.4324    0.0000 O   0  0  0  0  0  0  0  0  0  0  0  0
    7.9216   -8.9323    0.0000 C   0  0  0  0  0  0  0  0  0  0  0  0
    9.6536   -8.9323    0.0000 N   0  0  0  0  0  0  0  0  0  0  0  0
    7.0556   -9.4323    0.0000 N   0  0  0  0  0  0  0  0  0  0  0  0
    7.9216   -7.9323    0.0000 C   0  0  0  0  0  0  0  0  0  0  0  0
   11.3857   -8.9323    0.0000 C   0  0  0  0  0  0  0  0  0  0  0  0
   11.3857   -7.9323    0.0000 O   0  0  0  0  0  0  0  0  0  0  0  0
   10.5196   -9.4323    0.0000 C   0  0  0  0  0  0  0  0  0  0  0  0
   12.2517   -9.4323    0.0000 N   0  0  0  0  0  0  0  0  0  0  0  0
   10.5196  -10.4324    0.0000 C   0  0  0  0  0  0  0  0  0  0  0  0
   11.3857  -10.9324    0.0000 C   0  0  0  0  0  0  0  0  0  0  0  0
   11.3857  -11.9324    0.0000 C   0  0  0  0  0  0  0  0  0  0  0  0
   12.2517  -10.4324    0.0000 C   0  0  0  0  0  0  0  0  0  0  0  0
   13.1178   -8.9323    0.0000 C   0  0  0  0  0  0  0  0  0  0  0  0
   13.9838   -9.4323    0.0000 C   0  0  0  0  0  0  0  0  0  0  0  0
   13.9838  -10.4324    0.0000 O   0  0  0  0  0  0  0  0  0  0  0  0
   14.8498   -8.9323    0.0000 O   0  0  0  0  0  0  0  0  0  0  0  0
   13.1178   -7.9323    0.0000 C   0  0  0  0  0  0  0  0  0  0  0  0
  2  1  2  0     0  0
  3  1  1  0     0  0
  4  1  1  0     0  0
  3  5  1  1     0  0
  6  3  1  0     0  0
  8  7  2  0     0  0
  9  7  1  0     0  0
 10  7  1  0     0  0
  9  4  1  6     0  0
 11  9  1  0     0  0
 12 11  1  0     0  0
 13 12  1  0     0  0
 14 12  1  0     0  0
 15 10  1  1     0  0
 15 16  1  0     0  0
 16 17  2  0     0  0
 16 18  1  0     0  0
 15 19  1  0     0  0
M  END
> <ID>
CHEBI:158283

> <NAME>
Ala-Leu-Ala

> <DEFINITION>
A tripeptide composed of L-alanine, L-leucine and L-alanine joined in sequence by peptide linkages.

> <STAR>
3

> <SYNONYM>
L-Ala-L-Leu-L-Ala-OH; L-Ala-L-Leu-L-Ala; H-L-Ala-L-Leu-L-Ala-OH; H-Ala-Leu-Ala-OH; alanylleucyl alanine; ALA; A-L-A; (2S)-2-[[(2S)-2-[[(2S)-2-aminopropanoyl]amino]-4-methylpentanoyl]amino]propanoic acid

> <IUPAC_NAME>
L-alanyl-L-leucyl-L-alanine

> <FORMULA>
C12H23N3O4

> <MASS>
273.333

> <MONOISOTOPIC_MASS>
273.16886

> <CHARGE>
0

> <SMILES>
CC(C)C[C@H](NC(=O)[C@H](C)N)C(=O)N[C@@H](C)C(O)=O

> <INCHI>
InChI=1S/C12H23N3O4/c1-6(2)5-9(15-10(16)7(3)13)11(17)14-8(4)12(18)19/h6-9H,5,13H2,1-4H3,(H,14,17)(H,15,16)(H,18,19)/t7-,8-,9-/m0/s1

> <INCHIKEY>
HCZXHQADHZIEJD-CIUDSAMLSA-N

> <CAS_REGISTRY_NUMBER>
54865-21-3

> <PUBMED_CITATION>
29079626

$$$$
